<configuration>
    <input>
        <net-file value="grid1x3.net.xml"/>
        <route-files value="grid1x3_weighted_mt.rou.pen30.xml"/>
        <additional-files value="grid1x3.add.xml"/>
    </input>
    <time>
        <begin value="0"/>
        <end value="3600"/>
        <step-length value="0.5"/>
    </time>
    <report>
        <no-step-log value="true"/>
        <verbose value="false"/>
    </report>
</configuration>