<?xml version="1.0" encoding="UTF-8"?>

<!-- generated on 2025-10-31 13:58:39 by Eclipse SUMO netedit Version 1.21.0
<neteditConfiguration xmlns:xsi="http://www.w3.org/2001/XMLSchema-instance" xsi:noNamespaceSchemaLocation="http://sumo.dlr.de/xsd/neteditConfiguration.xsd">

    <input>
        <sumo-net-file value="C:\Users\33093\Desktop\xs1\sumo\grid1x3.net.xml"/>
    </input>

    <output>
        <output-file value="C:\Users\33093\Desktop\xs1\sumo\grid1x3.net.xml"/>
    </output>

    <processing>
        <geometry.min-radius.fix.railways value="false"/>
        <geometry.max-grade.fix value="false"/>
        <offset.disable-normalization value="true"/>
        <lefthand value="0"/>
    </processing>

    <junctions>
        <no-turnarounds value="true"/>
        <junctions.corner-detail value="5"/>
        <junctions.limit-turn-speed value="5.50"/>
        <rectangular-lane-cut value="0"/>
    </junctions>

    <pedestrian>
        <walkingareas value="0"/>
    </pedestrian>

</neteditConfiguration>
-->

<net version="1.20" junctionCornerDetail="5" limitTurnSpeed="5.50" xmlns:xsi="http://www.w3.org/2001/XMLSchema-instance" xsi:noNamespaceSchemaLocation="http://sumo.dlr.de/xsd/net_file.xsd">

    <location netOffset="0.00,100.00" convBoundary="0.00,0.00,1000.00,200.00" origBoundary="0.00,-100.00,1000.00,100.00" projParameter="!"/>

    <edge id=":J0_0" function="internal">
        <lane id=":J0_0_0" index="0" speed="6.51" length="9.03" shape="245.20,113.60 244.85,111.15 243.80,109.40 242.05,108.35 239.60,108.00"/>
    </edge>
    <edge id=":J0_1" function="internal">
        <lane id=":J0_1_0" index="0" speed="13.89" length="27.42" shape="245.20,113.60 245.70,106.54 246.80,100.00 247.90,93.46 248.40,86.40"/>
    </edge>
    <edge id=":J0_2" function="internal">
        <lane id=":J0_2_0" index="0" speed="9.84" length="21.99" shape="248.40,113.60 249.15,106.95 251.40,102.20 255.15,99.35 260.40,98.40"/>
    </edge>
    <edge id=":J0_3" function="internal">
        <lane id=":J0_3_0" index="0" speed="6.51" length="9.03" shape="260.40,108.00 257.95,108.35 256.20,109.40 255.15,111.15 254.80,113.60"/>
    </edge>
    <edge id=":J0_4" function="internal">
        <lane id=":J0_4_0" index="0" speed="13.89" length="20.96" shape="260.40,104.80 239.60,104.80"/>
        <lane id=":J0_4_1" index="1" speed="13.89" length="20.96" shape="260.40,104.80 254.19,104.30 250.00,103.20 245.81,102.10 239.60,101.60"/>
    </edge>
    <edge id=":J0_6" function="internal">
        <lane id=":J0_6_0" index="0" speed="9.84" length="21.99" shape="260.40,101.60 255.15,100.65 251.40,97.80 249.15,93.05 248.40,86.40"/>
    </edge>
    <edge id=":J0_7" function="internal">
        <lane id=":J0_7_0" index="0" speed="6.51" length="9.03" shape="254.80,86.40 255.15,88.85 256.20,90.60 257.95,91.65 260.40,92.00"/>
    </edge>
    <edge id=":J0_8" function="internal">
        <lane id=":J0_8_0" index="0" speed="13.89" length="27.42" shape="254.80,86.40 254.30,93.46 253.20,100.00 252.10,106.54 251.60,113.60"/>
    </edge>
    <edge id=":J0_9" function="internal">
        <lane id=":J0_9_0" index="0" speed="9.84" length="21.99" shape="251.60,86.40 250.85,93.05 248.60,97.80 244.85,100.65 239.60,101.60"/>
    </edge>
    <edge id=":J0_10" function="internal">
        <lane id=":J0_10_0" index="0" speed="6.51" length="9.03" shape="239.60,92.00 242.05,91.65 243.80,90.60 244.85,88.85 245.20,86.40"/>
    </edge>
    <edge id=":J0_11" function="internal">
        <lane id=":J0_11_0" index="0" speed="13.89" length="20.96" shape="239.60,95.20 260.40,95.20"/>
        <lane id=":J0_11_1" index="1" speed="13.89" length="20.96" shape="239.60,95.20 245.81,95.70 250.00,96.80 254.19,97.90 260.40,98.40"/>
    </edge>
    <edge id=":J0_13" function="internal">
        <lane id=":J0_13_0" index="0" speed="9.84" length="21.99" shape="239.60,98.40 244.85,99.35 248.60,102.20 250.85,106.95 251.60,113.60"/>
    </edge>
    <edge id=":J1_0" function="internal">
        <lane id=":J1_0_0" index="0" speed="6.51" length="9.03" shape="495.20,113.60 494.85,111.15 493.80,109.40 492.05,108.35 489.60,108.00"/>
    </edge>
    <edge id=":J1_1" function="internal">
        <lane id=":J1_1_0" index="0" speed="13.89" length="27.42" shape="495.20,113.60 495.70,106.54 496.80,100.00 497.90,93.46 498.40,86.40"/>
    </edge>
    <edge id=":J1_2" function="internal">
        <lane id=":J1_2_0" index="0" speed="9.84" length="21.99" shape="498.40,113.60 499.15,106.95 501.40,102.20 505.15,99.35 510.40,98.40"/>
    </edge>
    <edge id=":J1_3" function="internal">
        <lane id=":J1_3_0" index="0" speed="6.51" length="9.03" shape="510.40,108.00 507.95,108.35 506.20,109.40 505.15,111.15 504.80,113.60"/>
    </edge>
    <edge id=":J1_4" function="internal">
        <lane id=":J1_4_0" index="0" speed="13.89" length="20.96" shape="510.40,104.80 489.60,104.80"/>
        <lane id=":J1_4_1" index="1" speed="13.89" length="20.96" shape="510.40,104.80 504.19,104.30 500.00,103.20 495.81,102.10 489.60,101.60"/>
    </edge>
    <edge id=":J1_6" function="internal">
        <lane id=":J1_6_0" index="0" speed="9.84" length="21.99" shape="510.40,101.60 505.15,100.65 501.40,97.80 499.15,93.05 498.40,86.40"/>
    </edge>
    <edge id=":J1_7" function="internal">
        <lane id=":J1_7_0" index="0" speed="6.51" length="9.03" shape="504.80,86.40 505.15,88.85 506.20,90.60 507.95,91.65 510.40,92.00"/>
    </edge>
    <edge id=":J1_8" function="internal">
        <lane id=":J1_8_0" index="0" speed="13.89" length="27.42" shape="504.80,86.40 504.30,93.46 503.20,100.00 502.10,106.54 501.60,113.60"/>
    </edge>
    <edge id=":J1_9" function="internal">
        <lane id=":J1_9_0" index="0" speed="9.84" length="21.99" shape="501.60,86.40 500.85,93.05 498.60,97.80 494.85,100.65 489.60,101.60"/>
    </edge>
    <edge id=":J1_10" function="internal">
        <lane id=":J1_10_0" index="0" speed="6.51" length="9.03" shape="489.60,92.00 492.05,91.65 493.80,90.60 494.85,88.85 495.20,86.40"/>
    </edge>
    <edge id=":J1_11" function="internal">
        <lane id=":J1_11_0" index="0" speed="13.89" length="20.96" shape="489.60,95.20 510.40,95.20"/>
        <lane id=":J1_11_1" index="1" speed="13.89" length="20.96" shape="489.60,95.20 495.81,95.70 500.00,96.80 504.19,97.90 510.40,98.40"/>
    </edge>
    <edge id=":J1_13" function="internal">
        <lane id=":J1_13_0" index="0" speed="9.84" length="21.99" shape="489.60,98.40 494.85,99.35 498.60,102.20 500.85,106.95 501.60,113.60"/>
    </edge>
    <edge id=":J2_0" function="internal">
        <lane id=":J2_0_0" index="0" speed="6.51" length="9.03" shape="745.20,113.60 744.85,111.15 743.80,109.40 742.05,108.35 739.60,108.00"/>
    </edge>
    <edge id=":J2_1" function="internal">
        <lane id=":J2_1_0" index="0" speed="13.89" length="27.42" shape="745.20,113.60 745.70,106.54 746.80,100.00 747.90,93.46 748.40,86.40"/>
    </edge>
    <edge id=":J2_2" function="internal">
        <lane id=":J2_2_0" index="0" speed="9.84" length="21.99" shape="748.40,113.60 749.15,106.95 751.40,102.20 755.15,99.35 760.40,98.40"/>
    </edge>
    <edge id=":J2_3" function="internal">
        <lane id=":J2_3_0" index="0" speed="6.51" length="9.03" shape="760.40,108.00 757.95,108.35 756.20,109.40 755.15,111.15 754.80,113.60"/>
    </edge>
    <edge id=":J2_4" function="internal">
        <lane id=":J2_4_0" index="0" speed="13.89" length="20.96" shape="760.40,104.80 739.60,104.80"/>
        <lane id=":J2_4_1" index="1" speed="13.89" length="20.96" shape="760.40,104.80 754.19,104.30 750.00,103.20 745.81,102.10 739.60,101.60"/>
    </edge>
    <edge id=":J2_6" function="internal">
        <lane id=":J2_6_0" index="0" speed="9.84" length="21.99" shape="760.40,101.60 755.15,100.65 751.40,97.80 749.15,93.05 748.40,86.40"/>
    </edge>
    <edge id=":J2_7" function="internal">
        <lane id=":J2_7_0" index="0" speed="6.51" length="9.03" shape="754.80,86.40 755.15,88.85 756.20,90.60 757.95,91.65 760.40,92.00"/>
    </edge>
    <edge id=":J2_8" function="internal">
        <lane id=":J2_8_0" index="0" speed="13.89" length="27.42" shape="754.80,86.40 754.30,93.46 753.20,100.00 752.10,106.54 751.60,113.60"/>
    </edge>
    <edge id=":J2_9" function="internal">
        <lane id=":J2_9_0" index="0" speed="9.84" length="21.99" shape="751.60,86.40 750.85,93.05 748.60,97.80 744.85,100.65 739.60,101.60"/>
    </edge>
    <edge id=":J2_10" function="internal">
        <lane id=":J2_10_0" index="0" speed="6.51" length="9.03" shape="739.60,92.00 742.05,91.65 743.80,90.60 744.85,88.85 745.20,86.40"/>
    </edge>
    <edge id=":J2_11" function="internal">
        <lane id=":J2_11_0" index="0" speed="13.89" length="20.96" shape="739.60,95.20 760.40,95.20"/>
        <lane id=":J2_11_1" index="1" speed="13.89" length="20.96" shape="739.60,95.20 745.81,95.70 750.00,96.80 754.19,97.90 760.40,98.40"/>
    </edge>
    <edge id=":J2_13" function="internal">
        <lane id=":J2_13_0" index="0" speed="9.84" length="21.99" shape="739.60,98.40 744.85,99.35 748.60,102.20 750.85,106.95 751.60,113.60"/>
    </edge>

    <edge id="E_J2" from="E" to="J2" priority="-1">
        <lane id="E_J2_0" index="0" speed="13.89" length="239.60" shape="1000.00,108.00 760.40,108.00"/>
        <lane id="E_J2_1" index="1" speed="13.89" length="239.60" shape="1000.00,104.80 760.40,104.80"/>
        <lane id="E_J2_2" index="2" speed="13.89" length="239.60" shape="1000.00,101.60 760.40,101.60"/>
    </edge>
    <edge id="J0_J1" from="J0" to="J1" priority="-1">
        <lane id="J0_J1_0" index="0" speed="13.89" length="229.20" shape="260.40,92.00 489.60,92.00"/>
        <lane id="J0_J1_1" index="1" speed="13.89" length="229.20" shape="260.40,95.20 489.60,95.20"/>
        <lane id="J0_J1_2" index="2" speed="13.89" length="229.20" shape="260.40,98.40 489.60,98.40"/>
    </edge>
    <edge id="J0_N0" from="J0" to="N0" priority="-1">
        <lane id="J0_N0_0" index="0" speed="13.89" length="86.40" shape="254.80,113.60 254.80,200.00"/>
        <lane id="J0_N0_1" index="1" speed="13.89" length="86.40" shape="251.60,113.60 251.60,200.00"/>
    </edge>
    <edge id="J0_S0" from="J0" to="S0" priority="-1">
        <lane id="J0_S0_0" index="0" speed="13.89" length="86.40" shape="245.20,86.40 245.20,0.00"/>
        <lane id="J0_S0_1" index="1" speed="13.89" length="86.40" shape="248.40,86.40 248.40,0.00"/>
    </edge>
    <edge id="J0_W" from="J0" to="W" priority="-1">
        <lane id="J0_W_0" index="0" speed="13.89" length="239.60" shape="239.60,108.00 0.00,108.00"/>
        <lane id="J0_W_1" index="1" speed="13.89" length="239.60" shape="239.60,104.80 0.00,104.80"/>
        <lane id="J0_W_2" index="2" speed="13.89" length="239.60" shape="239.60,101.60 0.00,101.60"/>
    </edge>
    <edge id="J1_J0" from="J1" to="J0" priority="-1">
        <lane id="J1_J0_0" index="0" speed="13.89" length="229.20" shape="489.60,108.00 260.40,108.00"/>
        <lane id="J1_J0_1" index="1" speed="13.89" length="229.20" shape="489.60,104.80 260.40,104.80"/>
        <lane id="J1_J0_2" index="2" speed="13.89" length="229.20" shape="489.60,101.60 260.40,101.60"/>
    </edge>
    <edge id="J1_J2" from="J1" to="J2" priority="-1">
        <lane id="J1_J2_0" index="0" speed="13.89" length="229.20" shape="510.40,92.00 739.60,92.00"/>
        <lane id="J1_J2_1" index="1" speed="13.89" length="229.20" shape="510.40,95.20 739.60,95.20"/>
        <lane id="J1_J2_2" index="2" speed="13.89" length="229.20" shape="510.40,98.40 739.60,98.40"/>
    </edge>
    <edge id="J1_N1" from="J1" to="N1" priority="-1">
        <lane id="J1_N1_0" index="0" speed="13.89" length="86.40" shape="504.80,113.60 504.80,200.00"/>
        <lane id="J1_N1_1" index="1" speed="13.89" length="86.40" shape="501.60,113.60 501.60,200.00"/>
    </edge>
    <edge id="J1_S1" from="J1" to="S1" priority="-1">
        <lane id="J1_S1_0" index="0" speed="13.89" length="86.40" shape="495.20,86.40 495.20,0.00"/>
        <lane id="J1_S1_1" index="1" speed="13.89" length="86.40" shape="498.40,86.40 498.40,0.00"/>
    </edge>
    <edge id="J2_E" from="J2" to="E" priority="-1">
        <lane id="J2_E_0" index="0" speed="13.89" length="239.60" shape="760.40,92.00 1000.00,92.00"/>
        <lane id="J2_E_1" index="1" speed="13.89" length="239.60" shape="760.40,95.20 1000.00,95.20"/>
        <lane id="J2_E_2" index="2" speed="13.89" length="239.60" shape="760.40,98.40 1000.00,98.40"/>
    </edge>
    <edge id="J2_J1" from="J2" to="J1" priority="-1">
        <lane id="J2_J1_0" index="0" speed="13.89" length="229.20" shape="739.60,108.00 510.40,108.00"/>
        <lane id="J2_J1_1" index="1" speed="13.89" length="229.20" shape="739.60,104.80 510.40,104.80"/>
        <lane id="J2_J1_2" index="2" speed="13.89" length="229.20" shape="739.60,101.60 510.40,101.60"/>
    </edge>
    <edge id="J2_N2" from="J2" to="N2" priority="-1">
        <lane id="J2_N2_0" index="0" speed="13.89" length="86.40" shape="754.80,113.60 754.80,200.00"/>
        <lane id="J2_N2_1" index="1" speed="13.89" length="86.40" shape="751.60,113.60 751.60,200.00"/>
    </edge>
    <edge id="J2_S2" from="J2" to="S2" priority="-1">
        <lane id="J2_S2_0" index="0" speed="13.89" length="86.40" shape="745.20,86.40 745.20,0.00"/>
        <lane id="J2_S2_1" index="1" speed="13.89" length="86.40" shape="748.40,86.40 748.40,0.00"/>
    </edge>
    <edge id="N0_J0" from="N0" to="J0" priority="-1">
        <lane id="N0_J0_0" index="0" speed="13.89" length="86.40" shape="245.20,200.00 245.20,113.60"/>
        <lane id="N0_J0_1" index="1" speed="13.89" length="86.40" shape="248.40,200.00 248.40,113.60"/>
    </edge>
    <edge id="N1_J1" from="N1" to="J1" priority="-1">
        <lane id="N1_J1_0" index="0" speed="13.89" length="86.40" shape="495.20,200.00 495.20,113.60"/>
        <lane id="N1_J1_1" index="1" speed="13.89" length="86.40" shape="498.40,200.00 498.40,113.60"/>
    </edge>
    <edge id="N2_J2" from="N2" to="J2" priority="-1">
        <lane id="N2_J2_0" index="0" speed="13.89" length="86.40" shape="745.20,200.00 745.20,113.60"/>
        <lane id="N2_J2_1" index="1" speed="13.89" length="86.40" shape="748.40,200.00 748.40,113.60"/>
    </edge>
    <edge id="S0_J0" from="S0" to="J0" priority="-1">
        <lane id="S0_J0_0" index="0" speed="13.89" length="86.40" shape="254.80,0.00 254.80,86.40"/>
        <lane id="S0_J0_1" index="1" speed="13.89" length="86.40" shape="251.60,0.00 251.60,86.40"/>
    </edge>
    <edge id="S1_J1" from="S1" to="J1" priority="-1">
        <lane id="S1_J1_0" index="0" speed="13.89" length="86.40" shape="504.80,0.00 504.80,86.40"/>
        <lane id="S1_J1_1" index="1" speed="13.89" length="86.40" shape="501.60,0.00 501.60,86.40"/>
    </edge>
    <edge id="S2_J2" from="S2" to="J2" priority="-1">
        <lane id="S2_J2_0" index="0" speed="13.89" length="86.40" shape="754.80,0.00 754.80,86.40"/>
        <lane id="S2_J2_1" index="1" speed="13.89" length="86.40" shape="751.60,0.00 751.60,86.40"/>
    </edge>
    <edge id="W_J0" from="W" to="J0" priority="-1">
        <lane id="W_J0_0" index="0" speed="13.89" length="239.60" shape="0.00,92.00 239.60,92.00"/>
        <lane id="W_J0_1" index="1" speed="13.89" length="239.60" shape="0.00,95.20 239.60,95.20"/>
        <lane id="W_J0_2" index="2" speed="13.89" length="239.60" shape="0.00,98.40 239.60,98.40"/>
    </edge>

    <tlLogic id="J0" type="static" programID="0" offset="0">
        <phase duration="51" state="rrrrggggrrrrrggggr"/>
        <phase duration="5"  state="rrrrgyyyrrrrrgyyyr"/>
        <phase duration="36" state="rrrrgrrrGrrrrgrrrG"/>
        <phase duration="5"  state="rrrrgrrryrrrrgrrry"/>
        <phase duration="36" state="gggrgrrrrgggrgrrrr"/>
        <phase duration="5"  state="yyyrgrrrryyyrgrrrr"/>
        <phase duration="27" state="rrrGgrrrrrrrGgrrrr"/>
        <phase duration="5"  state="rrrygrrrrrrrygrrrr"/>
    </tlLogic>
    <tlLogic id="J1" type="static" programID="0" offset="17">
        <phase duration="51" state="rrrrggggrrrrrggggr"/>
        <phase duration="5"  state="rrrrgyyyrrrrrgyyyr"/>
        <phase duration="36" state="rrrrgrrrGrrrrgrrrG"/>
        <phase duration="5"  state="rrrrgrrryrrrrgrrry"/>
        <phase duration="36" state="gggrgrrrrgggrgrrrr"/>
        <phase duration="5"  state="yyyrgrrrryyyrgrrrr"/>
        <phase duration="27" state="rrrGgrrrrrrrGgrrrr"/>
        <phase duration="5"  state="rrrygrrrrrrrygrrrr"/>
    </tlLogic>
    <tlLogic id="J2" type="static" programID="0" offset="34">
        <phase duration="51" state="rrrrggggrrrrrggggr"/>
        <phase duration="5"  state="rrrrgyyyrrrrrgyyyr"/>
        <phase duration="36" state="rrrrgrrrGrrrrgrrrG"/>
        <phase duration="5"  state="rrrrgrrryrrrrgrrry"/>
        <phase duration="36" state="gggrgrrrrgggrgrrrr"/>
        <phase duration="5"  state="yyyrgrrrryyyrgrrrr"/>
        <phase duration="27" state="rrrGgrrrrrrrGgrrrr"/>
        <phase duration="5"  state="rrrygrrrrrrrygrrrr"/>
    </tlLogic>

    <junction id="E" type="dead_end" x="1000.00" y="100.00" incLanes="J2_E_0 J2_E_1 J2_E_2" intLanes="" shape="1000.00,100.00 1000.00,90.40 1000.00,100.00"/>
    <junction id="J0" type="traffic_light" x="250.00" y="100.00" incLanes="N0_J0_0 N0_J0_1 J1_J0_0 J1_J0_1 J1_J0_2 S0_J0_0 S0_J0_1 W_J0_0 W_J0_1 W_J0_2" intLanes=":J0_0_0 :J0_1_0 :J0_2_0 :J0_3_0 :J0_4_0 :J0_4_1 :J0_6_0 :J0_7_0 :J0_8_0 :J0_9_0 :J0_10_0 :J0_11_0 :J0_11_1 :J0_13_0" shape="243.60,113.60 256.40,113.60 256.84,111.38 257.40,110.60 258.18,110.04 259.18,109.71 260.40,109.60 260.40,90.40 258.18,89.96 257.40,89.40 256.84,88.62 256.51,87.62 256.40,86.40 243.60,86.40 243.16,88.62 242.60,89.40 241.82,89.96 240.82,90.29 239.60,90.40 239.60,109.60 241.82,110.04 242.60,110.60 243.16,111.38 243.49,112.38">
        <request index="0"  response="00000000000000" foes="00000000000000" cont="0"/>
        <request index="1"  response="11100001110000" foes="11101001110000" cont="0"/>
        <request index="2"  response="11100101110000" foes="11100101110000" cont="0"/>
        <request index="3"  response="00000000000000" foes="00000000000000" cont="0"/>
        <request index="4"  response="00000000000000" foes="10001100000110" cont="0"/>
        <request index="5"  response="00000000000000" foes="10001100000110" cont="0"/>
        <request index="6"  response="01100000000000" foes="01101100000110" cont="0"/>
        <request index="7"  response="00000000000000" foes="00000000000000" cont="0"/>
        <request index="8"  response="11100001110000" foes="11100001110100" cont="0"/>
        <request index="9"  response="11100001110010" foes="11100001110010" cont="0"/>
        <request index="10" response="00000000000000" foes="00000000000000" cont="0"/>
        <request index="11" response="00000000000000" foes="00001101000110" cont="0"/>
        <request index="12" response="00000000000000" foes="00001101000110" cont="0"/>
        <request index="13" response="00000000110000" foes="00001100110110" cont="0"/>
    </junction>
    <junction id="J1" type="traffic_light" x="500.00" y="100.00" incLanes="N1_J1_0 N1_J1_1 J2_J1_0 J2_J1_1 J2_J1_2 S1_J1_0 S1_J1_1 J0_J1_0 J0_J1_1 J0_J1_2" intLanes=":J1_0_0 :J1_1_0 :J1_2_0 :J1_3_0 :J1_4_0 :J1_4_1 :J1_6_0 :J1_7_0 :J1_8_0 :J1_9_0 :J1_10_0 :J1_11_0 :J1_11_1 :J1_13_0" shape="493.60,113.60 506.40,113.60 506.84,111.38 507.40,110.60 508.18,110.04 509.18,109.71 510.40,109.60 510.40,90.40 508.18,89.96 507.40,89.40 506.84,88.62 506.51,87.62 506.40,86.40 493.60,86.40 493.16,88.62 492.60,89.40 491.82,89.96 490.82,90.29 489.60,90.40 489.60,109.60 491.82,110.04 492.60,110.60 493.16,111.38 493.49,112.38">
        <request index="0"  response="00000000000000" foes="00000000000000" cont="0"/>
        <request index="1"  response="11100001110000" foes="11101001110000" cont="0"/>
        <request index="2"  response="11100101110000" foes="11100101110000" cont="0"/>
        <request index="3"  response="00000000000000" foes="00000000000000" cont="0"/>
        <request index="4"  response="00000000000000" foes="10001100000110" cont="0"/>
        <request index="5"  response="00000000000000" foes="10001100000110" cont="0"/>
        <request index="6"  response="01100000000000" foes="01101100000110" cont="0"/>
        <request index="7"  response="00000000000000" foes="00000000000000" cont="0"/>
        <request index="8"  response="11100001110000" foes="11100001110100" cont="0"/>
        <request index="9"  response="11100001110010" foes="11100001110010" cont="0"/>
        <request index="10" response="00000000000000" foes="00000000000000" cont="0"/>
        <request index="11" response="00000000000000" foes="00001101000110" cont="0"/>
        <request index="12" response="00000000000000" foes="00001101000110" cont="0"/>
        <request index="13" response="00000000110000" foes="00001100110110" cont="0"/>
    </junction>
    <junction id="J2" type="traffic_light" x="750.00" y="100.00" incLanes="N2_J2_0 N2_J2_1 E_J2_0 E_J2_1 E_J2_2 S2_J2_0 S2_J2_1 J1_J2_0 J1_J2_1 J1_J2_2" intLanes=":J2_0_0 :J2_1_0 :J2_2_0 :J2_3_0 :J2_4_0 :J2_4_1 :J2_6_0 :J2_7_0 :J2_8_0 :J2_9_0 :J2_10_0 :J2_11_0 :J2_11_1 :J2_13_0" shape="743.60,113.60 756.40,113.60 756.84,111.38 757.40,110.60 758.18,110.04 759.18,109.71 760.40,109.60 760.40,90.40 758.18,89.96 757.40,89.40 756.84,88.62 756.51,87.62 756.40,86.40 743.60,86.40 743.16,88.62 742.60,89.40 741.82,89.96 740.82,90.29 739.60,90.40 739.60,109.60 741.82,110.04 742.60,110.60 743.16,111.38 743.49,112.38">
        <request index="0"  response="00000000000000" foes="00000000000000" cont="0"/>
        <request index="1"  response="11100001110000" foes="11101001110000" cont="0"/>
        <request index="2"  response="11100101110000" foes="11100101110000" cont="0"/>
        <request index="3"  response="00000000000000" foes="00000000000000" cont="0"/>
        <request index="4"  response="00000000000000" foes="10001100000110" cont="0"/>
        <request index="5"  response="00000000000000" foes="10001100000110" cont="0"/>
        <request index="6"  response="01100000000000" foes="01101100000110" cont="0"/>
        <request index="7"  response="00000000000000" foes="00000000000000" cont="0"/>
        <request index="8"  response="11100001110000" foes="11100001110100" cont="0"/>
        <request index="9"  response="11100001110010" foes="11100001110010" cont="0"/>
        <request index="10" response="00000000000000" foes="00000000000000" cont="0"/>
        <request index="11" response="00000000000000" foes="00001101000110" cont="0"/>
        <request index="12" response="00000000000000" foes="00001101000110" cont="0"/>
        <request index="13" response="00000000110000" foes="00001100110110" cont="0"/>
    </junction>
    <junction id="N0" type="dead_end" x="250.00" y="200.00" incLanes="J0_N0_0 J0_N0_1" intLanes="" shape="250.00,200.00 256.40,200.00 250.00,200.00"/>
    <junction id="N1" type="dead_end" x="500.00" y="200.00" incLanes="J1_N1_0 J1_N1_1" intLanes="" shape="500.00,200.00 506.40,200.00 500.00,200.00"/>
    <junction id="N2" type="dead_end" x="750.00" y="200.00" incLanes="J2_N2_0 J2_N2_1" intLanes="" shape="750.00,200.00 756.40,200.00 750.00,200.00"/>
    <junction id="S0" type="dead_end" x="250.00" y="0.00" incLanes="J0_S0_0 J0_S0_1" intLanes="" shape="250.00,0.00 243.60,0.00 250.00,0.00"/>
    <junction id="S1" type="dead_end" x="500.00" y="0.00" incLanes="J1_S1_0 J1_S1_1" intLanes="" shape="500.00,0.00 493.60,0.00 500.00,0.00"/>
    <junction id="S2" type="dead_end" x="750.00" y="0.00" incLanes="J2_S2_0 J2_S2_1" intLanes="" shape="750.00,0.00 743.60,0.00 750.00,0.00"/>
    <junction id="W" type="dead_end" x="0.00" y="100.00" incLanes="J0_W_0 J0_W_1 J0_W_2" intLanes="" shape="0.00,100.00 0.00,109.60 0.00,100.00"/>

    <connection from="E_J2" to="J2_N2" fromLane="0" toLane="0" via=":J2_3_0" tl="J2" linkIndex="4" dir="r" state="O"/>
    <connection from="E_J2" to="J2_J1" fromLane="1" toLane="1" via=":J2_4_0" tl="J2" linkIndex="6" dir="s" state="O"/>
    <connection from="E_J2" to="J2_J1" fromLane="1" toLane="2" via=":J2_4_1" tl="J2" linkIndex="7" dir="s" state="O"/>
    <connection from="E_J2" to="J2_S2" fromLane="2" toLane="1" via=":J2_6_0" tl="J2" linkIndex="8" dir="l" state="o"/>
    <connection from="J0_J1" to="J1_S1" fromLane="0" toLane="0" via=":J1_10_0" tl="J1" linkIndex="13" dir="r" state="O"/>
    <connection from="J0_J1" to="J1_J2" fromLane="1" toLane="1" via=":J1_11_0" tl="J1" linkIndex="15" dir="s" state="O"/>
    <connection from="J0_J1" to="J1_J2" fromLane="1" toLane="2" via=":J1_11_1" tl="J1" linkIndex="16" dir="s" state="O"/>
    <connection from="J0_J1" to="J1_N1" fromLane="2" toLane="1" via=":J1_13_0" tl="J1" linkIndex="17" dir="l" state="o"/>
    <connection from="J1_J0" to="J0_N0" fromLane="0" toLane="0" via=":J0_3_0" tl="J0" linkIndex="4" dir="r" state="O"/>
    <connection from="J1_J0" to="J0_W" fromLane="1" toLane="1" via=":J0_4_0" tl="J0" linkIndex="6" dir="s" state="O"/>
    <connection from="J1_J0" to="J0_W" fromLane="1" toLane="2" via=":J0_4_1" tl="J0" linkIndex="7" dir="s" state="O"/>
    <connection from="J1_J0" to="J0_S0" fromLane="2" toLane="1" via=":J0_6_0" tl="J0" linkIndex="8" dir="l" state="o"/>
    <connection from="J1_J2" to="J2_S2" fromLane="0" toLane="0" via=":J2_10_0" tl="J2" linkIndex="13" dir="r" state="O"/>
    <connection from="J1_J2" to="J2_E" fromLane="1" toLane="1" via=":J2_11_0" tl="J2" linkIndex="15" dir="s" state="O"/>
    <connection from="J1_J2" to="J2_E" fromLane="1" toLane="2" via=":J2_11_1" tl="J2" linkIndex="16" dir="s" state="O"/>
    <connection from="J1_J2" to="J2_N2" fromLane="2" toLane="1" via=":J2_13_0" tl="J2" linkIndex="17" dir="l" state="o"/>
    <connection from="J2_J1" to="J1_N1" fromLane="0" toLane="0" via=":J1_3_0" tl="J1" linkIndex="4" dir="r" state="O"/>
    <connection from="J2_J1" to="J1_J0" fromLane="1" toLane="1" via=":J1_4_0" tl="J1" linkIndex="6" dir="s" state="O"/>
    <connection from="J2_J1" to="J1_J0" fromLane="1" toLane="2" via=":J1_4_1" tl="J1" linkIndex="7" dir="s" state="O"/>
    <connection from="J2_J1" to="J1_S1" fromLane="2" toLane="1" via=":J1_6_0" tl="J1" linkIndex="8" dir="l" state="o"/>
    <connection from="N0_J0" to="J0_W" fromLane="0" toLane="0" via=":J0_0_0" tl="J0" linkIndex="0" dir="r" state="O"/>
    <connection from="N0_J0" to="J0_S0" fromLane="0" toLane="1" via=":J0_1_0" tl="J0" linkIndex="2" dir="s" state="o"/>
    <connection from="N0_J0" to="J0_J1" fromLane="1" toLane="2" via=":J0_2_0" tl="J0" linkIndex="3" dir="l" state="o"/>
    <connection from="N1_J1" to="J1_J0" fromLane="0" toLane="0" via=":J1_0_0" tl="J1" linkIndex="0" dir="r" state="O"/>
    <connection from="N1_J1" to="J1_S1" fromLane="0" toLane="1" via=":J1_1_0" tl="J1" linkIndex="2" dir="s" state="o"/>
    <connection from="N1_J1" to="J1_J2" fromLane="1" toLane="2" via=":J1_2_0" tl="J1" linkIndex="3" dir="l" state="o"/>
    <connection from="N2_J2" to="J2_J1" fromLane="0" toLane="0" via=":J2_0_0" tl="J2" linkIndex="0" dir="r" state="O"/>
    <connection from="N2_J2" to="J2_S2" fromLane="0" toLane="1" via=":J2_1_0" tl="J2" linkIndex="2" dir="s" state="o"/>
    <connection from="N2_J2" to="J2_E" fromLane="1" toLane="2" via=":J2_2_0" tl="J2" linkIndex="3" dir="l" state="o"/>
    <connection from="S0_J0" to="J0_J1" fromLane="0" toLane="0" via=":J0_7_0" tl="J0" linkIndex="9" dir="r" state="O"/>
    <connection from="S0_J0" to="J0_N0" fromLane="0" toLane="1" via=":J0_8_0" tl="J0" linkIndex="11" dir="s" state="o"/>
    <connection from="S0_J0" to="J0_W" fromLane="1" toLane="2" via=":J0_9_0" tl="J0" linkIndex="12" dir="l" state="o"/>
    <connection from="S1_J1" to="J1_J2" fromLane="0" toLane="0" via=":J1_7_0" tl="J1" linkIndex="9" dir="r" state="O"/>
    <connection from="S1_J1" to="J1_N1" fromLane="0" toLane="1" via=":J1_8_0" tl="J1" linkIndex="11" dir="s" state="o"/>
    <connection from="S1_J1" to="J1_J0" fromLane="1" toLane="2" via=":J1_9_0" tl="J1" linkIndex="12" dir="l" state="o"/>
    <connection from="S2_J2" to="J2_E" fromLane="0" toLane="0" via=":J2_7_0" tl="J2" linkIndex="9" dir="r" state="O"/>
    <connection from="S2_J2" to="J2_N2" fromLane="0" toLane="1" via=":J2_8_0" tl="J2" linkIndex="11" dir="s" state="o"/>
    <connection from="S2_J2" to="J2_J1" fromLane="1" toLane="2" via=":J2_9_0" tl="J2" linkIndex="12" dir="l" state="o"/>
    <connection from="W_J0" to="J0_S0" fromLane="0" toLane="0" via=":J0_10_0" tl="J0" linkIndex="13" dir="r" state="O"/>
    <connection from="W_J0" to="J0_J1" fromLane="1" toLane="1" via=":J0_11_0" tl="J0" linkIndex="15" dir="s" state="O"/>
    <connection from="W_J0" to="J0_J1" fromLane="1" toLane="2" via=":J0_11_1" tl="J0" linkIndex="16" dir="s" state="O"/>
    <connection from="W_J0" to="J0_N0" fromLane="2" toLane="1" via=":J0_13_0" tl="J0" linkIndex="17" dir="l" state="o"/>

    <connection from=":J0_0" to="J0_W" fromLane="0" toLane="0" dir="r" state="M"/>
    <connection from=":J0_1" to="J0_S0" fromLane="0" toLane="1" dir="s" state="M"/>
    <connection from=":J0_2" to="J0_J1" fromLane="0" toLane="2" dir="l" state="M"/>
    <connection from=":J0_3" to="J0_N0" fromLane="0" toLane="0" dir="r" state="M"/>
    <connection from=":J0_4" to="J0_W" fromLane="0" toLane="1" dir="s" state="M"/>
    <connection from=":J0_4" to="J0_W" fromLane="1" toLane="2" dir="s" state="M"/>
    <connection from=":J0_6" to="J0_S0" fromLane="0" toLane="1" dir="l" state="M"/>
    <connection from=":J0_7" to="J0_J1" fromLane="0" toLane="0" dir="r" state="M"/>
    <connection from=":J0_8" to="J0_N0" fromLane="0" toLane="1" dir="s" state="M"/>
    <connection from=":J0_9" to="J0_W" fromLane="0" toLane="2" dir="l" state="M"/>